Version 4
SHEET 1 984 680
WIRE 208 -256 192 -256
WIRE -176 -160 -176 -224
WIRE 48 -160 48 -256
WIRE 256 -112 256 -256
WIRE -176 -48 -176 -80
WIRE -176 -48 -256 -48
WIRE -128 -48 -176 -48
WIRE 0 -48 -128 -48
WIRE 48 -32 48 -80
WIRE 176 -32 160 -32
WIRE -256 -16 -256 -48
WIRE -176 -16 -176 -48
WIRE 208 0 208 -256
WIRE 256 0 256 -32
WIRE 256 0 208 0
WIRE 256 48 256 0
WIRE -256 80 -256 48
WIRE -176 80 -176 64
WIRE -176 80 -256 80
WIRE 0 80 0 -48
WIRE 32 80 0 80
WIRE 64 80 32 80
WIRE 160 80 160 -32
WIRE -176 112 -176 80
WIRE 256 112 256 48
WIRE 608 144 608 112
WIRE 720 144 720 112
WIRE -144 208 -208 208
WIRE -48 208 -80 208
WIRE 32 208 32 160
WIRE 64 208 32 208
WIRE 288 208 288 144
WIRE 336 208 336 144
WIRE 336 208 288 208
WIRE 400 208 400 176
WIRE 400 224 400 208
WIRE 288 240 288 208
WIRE 608 256 608 224
WIRE 720 256 720 224
WIRE 160 288 160 208
WIRE -208 352 -208 208
WIRE 288 352 288 320
WIRE 288 352 224 352
WIRE 400 352 400 304
WIRE -208 464 -208 432
FLAG 608 256 0
FLAG 608 112 VCC
FLAG 160 -32 VCC
FLAG 720 256 0
FLAG 720 112 VSS
FLAG -208 464 0
FLAG -208 208 IN
FLAG 400 352 VSS
FLAG 256 48 Vabc
FLAG 48 -32 0
FLAG -176 112 0
FLAG -176 -224 VCC
FLAG 160 288 0
FLAG -128 -48 BIAS
FLAG 64 208 OTA
FLAG 400 208 BUFOUT
FLAG 256 -256 VCC
FLAG 224 352 BIAS
DATAFLAG -16 -48 "$"
DATAFLAG 160 16 "$"
DATAFLAG 320 208 "$"
SYMBOL LM13700 128 64 R0
SYMATTR InstName U1
SYMBOL voltage 608 128 R0
WINDOW 123 0 0 Left 2
WINDOW 39 0 0 Left 2
SYMATTR InstName Vvcc
SYMATTR Value 15
SYMBOL res 384 208 R0
SYMATTR InstName Rbuf
SYMATTR Value 10k
SYMBOL voltage 720 128 R0
WINDOW 123 0 0 Left 2
WINDOW 39 0 0 Left 2
SYMATTR InstName Vvss
SYMATTR Value -15
SYMBOL res 240 -128 R0
SYMATTR InstName Rbias
SYMATTR Value 47k
SYMBOL voltage 48 -176 R0
SYMATTR InstName Vmod
SYMATTR Value SINE(0 1 80)
SYMBOL voltage -208 336 R0
SYMATTR InstName Vin
SYMATTR Value SINE(0 1V 500)
SYMATTR Value2 AC 1
SYMBOL res -192 -32 R0
SYMATTR InstName Rb1
SYMATTR Value 10k
SYMBOL res -192 -176 R0
SYMATTR InstName Rb2
SYMATTR Value 10k
SYMBOL res 16 64 R0
SYMATTR InstName Rdiff
SYMATTR Value 1k
SYMBOL cap -80 192 R90
WINDOW 0 0 32 VBottom 2
WINDOW 3 32 32 VTop 2
SYMATTR InstName Cin
SYMATTR Value 5µ
SYMBOL cap -240 48 R180
WINDOW 0 24 56 Left 2
WINDOW 3 24 8 Left 2
SYMATTR InstName Cin1
SYMATTR Value 5µ
SYMBOL res 48 192 R90
WINDOW 0 0 56 VBottom 2
WINDOW 3 32 56 VTop 2
SYMATTR InstName Rin
SYMATTR Value 100k
SYMBOL res 144 -272 R90
WINDOW 0 0 56 VBottom 2
WINDOW 3 32 56 VTop 2
SYMATTR InstName Rmod
SYMATTR Value 5K
SYMBOL cap 192 -272 R90
WINDOW 0 0 32 VBottom 2
WINDOW 3 32 32 VTop 2
SYMATTR InstName Cmod
SYMATTR Value 1µ
SYMBOL res 272 224 R0
SYMATTR InstName Rbias1
SYMATTR Value 22k
TEXT 744 -144 Left 2 !.lib lm13700.sub
TEXT 736 -240 Left 2 !.tran 200u 100m\n*.ac dec 1000 10 50k
