Version 4
SHEET 1 880 680
WIRE 48 -256 -224 -256
WIRE -224 -160 -224 -256
WIRE 128 -144 128 -256
WIRE 256 -112 256 -256
WIRE -224 -32 -224 -80
WIRE 128 0 128 -80
WIRE 256 0 256 -32
WIRE 256 0 128 0
WIRE 32 32 -32 32
WIRE 256 48 256 0
WIRE -32 80 -32 32
WIRE 32 80 32 32
WIRE 64 80 32 80
WIRE 32 96 32 80
WIRE 256 112 256 48
WIRE 304 112 288 112
WIRE 336 112 304 112
WIRE 288 144 288 112
WIRE 336 144 336 112
WIRE 608 144 608 112
WIRE 720 144 720 112
WIRE -144 208 -224 208
WIRE -64 208 -80 208
WIRE 32 208 32 176
WIRE 32 208 16 208
WIRE 64 208 32 208
WIRE 400 208 400 176
WIRE -224 224 -224 208
WIRE 400 224 400 208
WIRE 304 240 304 112
WIRE 608 256 608 224
WIRE 720 256 720 224
WIRE -224 336 -224 304
WIRE 304 352 304 320
WIRE 400 352 400 304
FLAG 608 256 0
FLAG 608 112 VCC
FLAG 160 208 VSS
FLAG 160 80 VCC
FLAG 720 256 0
FLAG 720 112 VSS
FLAG -224 336 0
FLAG 400 352 VSS
FLAG 304 112 OUT
FLAG 400 208 BUF
FLAG 256 48 Vabc
FLAG -224 -32 0
FLAG 256 -256 VCC
FLAG -32 80 0
FLAG 304 352 0
SYMBOL LM13700 128 64 R0
SYMATTR InstName U1
SYMBOL voltage 608 128 R0
WINDOW 123 0 0 Left 2
WINDOW 39 0 0 Left 2
SYMATTR InstName Vvcc
SYMATTR Value 15
SYMBOL res 384 208 R0
SYMATTR InstName Rbuf
SYMATTR Value 10k
SYMBOL voltage -224 208 R0
WINDOW 123 24 124 Left 2
WINDOW 39 0 0 Left 2
SYMATTR Value2 AC 1
SYMATTR InstName Vin
SYMATTR Value SINE(0 3 100)
SYMBOL voltage 720 128 R0
WINDOW 123 0 0 Left 2
WINDOW 39 0 0 Left 2
SYMATTR InstName Vvss
SYMATTR Value -15
SYMBOL res 288 224 R0
SYMATTR InstName Rout
SYMATTR Value 1k
SYMBOL res 240 -128 R0
SYMATTR InstName Rout1
SYMATTR Value 10k
SYMBOL voltage -224 -176 R0
WINDOW 123 24 124 Left 2
WINDOW 39 0 0 Left 2
SYMATTR Value2 AC 1
SYMATTR InstName Vin2
SYMATTR Value SINE(0 3 56)
SYMBOL cap 112 -144 R0
SYMATTR InstName C1
SYMATTR Value 100n
SYMBOL res 144 -272 R90
WINDOW 0 0 56 VBottom 2
WINDOW 3 32 56 VTop 2
SYMATTR InstName Rout2
SYMATTR Value 2.2k
SYMBOL cap -80 192 R90
WINDOW 0 0 32 VBottom 2
WINDOW 3 32 32 VTop 2
SYMATTR InstName C2
SYMATTR Value 1µ
SYMBOL res 16 80 R0
SYMATTR InstName Rout3
SYMATTR Value 1k
SYMBOL res 32 192 R90
WINDOW 0 0 56 VBottom 2
WINDOW 3 32 56 VTop 2
SYMATTR InstName Rout4
SYMATTR Value 100k
TEXT 488 -152 Left 2 !.lib lm13700.sub
TEXT 488 -184 Left 2 !.tran 20u 200m
