Version 4
SHEET 1 880 680
WIRE 256 -256 48 -256
WIRE 48 -160 48 -256
WIRE 352 -128 352 -144
WIRE 256 -112 256 -256
WIRE 352 -80 352 -128
WIRE 48 -32 48 -80
WIRE 256 48 256 -32
WIRE 352 64 352 0
WIRE 352 64 304 64
WIRE 64 80 16 80
WIRE 16 112 16 80
WIRE 256 112 256 48
WIRE 304 112 304 64
WIRE 304 112 288 112
WIRE 336 112 304 112
WIRE 288 144 288 112
WIRE 336 144 336 112
WIRE 608 144 608 112
WIRE 720 144 720 112
WIRE -16 208 -32 208
WIRE 64 208 -16 208
WIRE 400 208 400 176
WIRE -32 224 -32 208
WIRE 400 224 400 208
WIRE 304 240 304 112
WIRE 608 256 608 224
WIRE 720 256 720 224
WIRE -32 336 -32 304
WIRE 304 352 304 320
WIRE 400 352 400 304
WIRE 304 384 304 352
FLAG 608 256 0
FLAG 608 112 VCC
FLAG 160 208 VSS
FLAG 160 80 VCC
FLAG 720 256 0
FLAG 720 112 VSS
FLAG -32 336 0
FLAG 16 112 0
FLAG -16 208 IN
FLAG 400 352 VSS
FLAG 304 112 OUT
FLAG 400 208 BUF
FLAG 256 48 Vabc
FLAG 352 -128 VCC
FLAG 304 352 VSS
FLAG 48 -32 0
SYMBOL LM13700 128 64 R0
SYMATTR InstName U1
SYMBOL voltage 608 128 R0
WINDOW 123 0 0 Left 2
WINDOW 39 0 0 Left 2
SYMATTR InstName Vvcc
SYMATTR Value 10
SYMBOL res 384 208 R0
SYMATTR InstName Rbuf
SYMATTR Value 200k
SYMBOL voltage -32 208 R0
WINDOW 123 24 124 Left 2
WINDOW 39 0 0 Left 2
SYMATTR Value2 AC 1
SYMATTR InstName Vin
SYMATTR Value SINE(0 100m 500)
SYMBOL voltage 720 128 R0
WINDOW 123 0 0 Left 2
WINDOW 39 0 0 Left 2
SYMATTR InstName Vvss
SYMATTR Value -10
SYMBOL res 288 224 R0
SYMATTR InstName Rout
SYMATTR Value 1k
SYMBOL res 336 -96 R0
SYMATTR InstName Rout2
SYMATTR Value 1k
SYMBOL res 240 -128 R0
SYMATTR InstName Rout1
SYMATTR Value 30k
SYMBOL voltage 48 -176 R0
WINDOW 123 24 124 Left 2
WINDOW 39 0 0 Left 2
SYMATTR Value2 AC 1
SYMATTR InstName Vin2
SYMATTR Value SINE(0 8 20)
TEXT 488 -152 Left 2 !.lib lm13700.sub
TEXT 488 -184 Left 2 !.tran 20u 200m
