Version 4
SHEET 1 880 680
WIRE 144 -256 48 -256
WIRE 256 -256 144 -256
WIRE 48 -160 48 -256
WIRE 256 -112 256 -256
WIRE 48 -32 48 -80
WIRE 256 48 256 -32
WIRE 64 80 -16 80
WIRE 256 112 256 48
WIRE 304 112 288 112
WIRE 336 112 304 112
WIRE 288 144 288 112
WIRE 336 144 336 112
WIRE 608 144 608 112
WIRE 720 144 720 112
WIRE -128 208 -272 208
WIRE 64 208 -128 208
WIRE 400 208 400 176
WIRE 528 208 400 208
WIRE 400 224 400 208
WIRE 304 240 304 112
WIRE 608 256 608 224
WIRE 720 256 720 224
WIRE -16 272 -16 80
WIRE 144 272 -16 272
WIRE -272 288 -272 208
WIRE 400 352 400 304
WIRE 304 384 304 304
WIRE -272 400 -272 368
WIRE 144 480 144 272
WIRE 528 480 144 480
WIRE 528 480 528 208
FLAG 608 256 0
FLAG 608 112 VCC
FLAG 160 208 VSS
FLAG 160 80 VCC
FLAG 720 256 0
FLAG 720 112 VSS
FLAG -272 400 0
FLAG -128 208 IN
FLAG 400 352 VSS
FLAG 304 112 OUT
FLAG 400 208 BUF
FLAG 256 48 Vabc
FLAG 48 -32 0
FLAG 304 384 0
FLAG 144 -256 Vcontrol
SYMBOL LM13700 128 64 R0
SYMATTR InstName U1
SYMBOL voltage 608 128 R0
WINDOW 123 0 0 Left 2
WINDOW 39 0 0 Left 2
SYMATTR InstName Vvcc
SYMATTR Value 6
SYMBOL res 384 208 R0
SYMATTR InstName Rbuf
SYMATTR Value 10k
SYMBOL voltage -272 272 R0
WINDOW 123 24 124 Left 2
WINDOW 39 0 0 Left 2
SYMATTR Value2 AC 1
SYMATTR InstName Vin
SYMATTR Value SINE(0 10m 10k)
SYMBOL voltage 720 128 R0
WINDOW 123 0 0 Left 2
WINDOW 39 0 0 Left 2
SYMATTR InstName Vvss
SYMATTR Value -6
SYMBOL res 240 -128 R0
SYMATTR InstName Rabc
SYMATTR Value 30k
SYMBOL voltage 48 -176 R0
WINDOW 123 24 124 Left 2
WINDOW 39 0 0 Left 2
SYMATTR InstName Vin2
SYMATTR Value -2
SYMBOL cap 288 240 R0
SYMATTR InstName Cout
SYMATTR Value 1µ
TEXT 488 -152 Left 2 !.lib lm13700.sub
TEXT 480 -248 Left 2 !*.tran 20u 200m\n.AC  DEC  20 20 20k
