Version 4
SHEET 1 1716 1712
WIRE 992 -608 992 -640
WIRE 1104 -608 1104 -640
WIRE 992 -496 992 -528
WIRE 1104 -496 1104 -528
WIRE -720 -272 -720 -416
WIRE -96 -256 -624 -256
WIRE -800 -176 -832 -176
WIRE -720 -176 -720 -192
WIRE -720 -176 -800 -176
WIRE -720 -160 -720 -176
WIRE -624 -160 -624 -256
WIRE -1088 -112 -1264 -112
WIRE -944 -112 -1008 -112
WIRE -800 -112 -944 -112
WIRE -784 -112 -800 -112
WIRE -480 -112 -560 -112
WIRE -464 -112 -480 -112
WIRE -352 -112 -384 -112
WIRE -480 -80 -480 -112
WIRE 416 -80 416 -144
WIRE -1264 -64 -1264 -112
WIRE -672 -64 -720 -64
WIRE -624 -64 -672 -64
WIRE -944 -48 -944 -112
WIRE -672 -32 -672 -64
WIRE -352 0 -352 -32
WIRE -96 0 -96 -256
WIRE 416 0 416 -80
WIRE -480 32 -480 0
WIRE -368 32 -480 32
WIRE -288 32 -368 32
WIRE -560 48 -672 48
WIRE -96 64 -96 0
WIRE -48 64 -64 64
WIRE -16 64 -48 64
WIRE -1264 80 -1264 16
WIRE -944 80 -944 32
WIRE -944 80 -1264 80
WIRE -368 80 -368 32
WIRE -1264 96 -1264 80
WIRE -832 96 -832 -176
WIRE -704 96 -832 96
WIRE -64 96 -64 64
WIRE -16 96 -16 64
WIRE -704 112 -704 96
WIRE -832 160 -832 96
WIRE -816 160 -832 160
WIRE 48 160 48 128
WIRE 224 160 48 160
WIRE -704 176 -752 176
WIRE -560 176 -560 48
WIRE -560 176 -704 176
WIRE 48 176 48 160
WIRE -816 192 -864 192
WIRE -48 192 -48 64
WIRE 416 192 416 80
WIRE 480 192 448 192
WIRE 496 192 480 192
WIRE -864 224 -864 192
WIRE 448 224 448 192
WIRE 496 224 496 192
WIRE 560 288 560 256
WIRE 688 288 560 288
WIRE 48 304 48 256
WIRE 560 304 560 288
WIRE -48 336 -48 256
WIRE -288 416 -288 160
WIRE 224 416 224 288
WIRE 224 416 -288 416
WIRE 272 416 224 416
WIRE 480 416 480 192
WIRE 480 416 272 416
WIRE 560 432 560 384
WIRE 272 448 272 416
WIRE 272 576 272 528
FLAG 992 -496 0
FLAG 992 -640 VCC
FLAG -192 160 VSS
FLAG -192 32 VCC
FLAG 1104 -496 0
FLAG 1104 -640 VSS
FLAG 48 304 VSS
FLAG -48 64 OUT
FLAG 48 160 BUF
FLAG -96 0 Vabc
FLAG -48 336 0
FLAG 320 288 VSS
FLAG 320 160 VCC
FLAG 560 432 VSS
FLAG -368 80 0
FLAG 416 -80 VCC
FLAG -864 224 0
FLAG -1264 96 0
FLAG -352 0 0
FLAG -784 144 VCC
FLAG -784 208 VSS
FLAG -800 -112 q1b
FLAG -800 -176 aopm
FLAG -720 -416 VSS
FLAG 272 576 0
DATAFLAG -624 -208 ""
DATAFLAG -560 112 ""
DATAFLAG -832 -16 ""
DATAFLAG -672 -64 ""
DATAFLAG -1168 -112 ""
DATAFLAG -720 -352 ""
DATAFLAG -528 -112 "$"
DATAFLAG -944 -112 "$"
SYMBOL LM13700 -224 16 R0
SYMATTR InstName U1
SYMBOL voltage 992 -624 R0
WINDOW 123 0 0 Left 2
WINDOW 39 0 0 Left 2
SYMATTR InstName Vvcc
SYMATTR Value 15
SYMBOL res 32 160 R0
SYMATTR InstName Rbuf
SYMATTR Value 10k
SYMBOL voltage 1104 -624 R0
WINDOW 123 0 0 Left 2
WINDOW 39 0 0 Left 2
SYMATTR InstName Vvss
SYMATTR Value -15
SYMBOL cap -64 192 R0
SYMATTR InstName Cosc
SYMATTR Value 150n
SYMBOL LM13700 288 144 R0
SYMATTR InstName U2
SYMBOL LT1358 -784 112 R0
SYMATTR InstName U9
SYMBOL res -656 64 R180
WINDOW 0 36 76 Left 2
WINDOW 3 36 40 Left 2
SYMATTR InstName Rcom
SYMATTR Value 220
SYMBOL voltage -1264 -80 R0
WINDOW 123 0 0 Left 2
WINDOW 39 0 0 Left 2
SYMATTR InstName Vcvfreq
SYMATTR Value PULSE(0 5 300m 1m 1m 400m 1)
SYMBOL pnp -784 -160 R0
WINDOW 0 32 45 Left 2
SYMATTR InstName Q4
SYMBOL pnp -560 -160 M0
WINDOW 0 42 39 Left 2
SYMATTR InstName Q6
SYMBOL voltage -352 -128 R0
WINDOW 123 0 0 Left 2
WINDOW 39 0 0 Left 2
SYMATTR InstName Vbias
SYMATTR Value 5
SYMBOL res -1104 -96 R270
WINDOW 0 32 56 VTop 2
WINDOW 3 0 56 VBottom 2
SYMATTR InstName R2
SYMATTR Value 3.3k
SYMBOL res -928 48 R180
WINDOW 0 36 76 Left 2
WINDOW 3 36 40 Left 2
SYMATTR InstName R1
SYMATTR Value 100
SYMBOL res -480 -96 R270
WINDOW 0 32 56 VTop 2
WINDOW 3 0 56 VBottom 2
SYMATTR InstName R3
SYMATTR Value 8.2k
SYMBOL res -464 16 R180
WINDOW 0 36 76 Left 2
WINDOW 3 36 40 Left 2
SYMATTR InstName R4
SYMATTR Value 100
SYMBOL res 576 400 R180
WINDOW 0 36 76 Left 2
WINDOW 3 36 40 Left 2
SYMATTR InstName Rbuf1
SYMATTR Value 10k
SYMBOL res 288 544 R180
WINDOW 0 36 76 Left 2
WINDOW 3 36 40 Left 2
SYMATTR InstName Rosc
SYMATTR Value 4.7k
SYMBOL res 432 96 R180
WINDOW 0 36 76 Left 2
WINDOW 3 36 40 Left 2
SYMATTR InstName Rabc1
SYMATTR Value 47k
SYMBOL cap -720 112 R0
SYMATTR InstName Cstab
SYMATTR Value 1n
SYMBOL res -704 -176 R180
WINDOW 0 36 76 Left 2
WINDOW 3 36 40 Left 2
SYMATTR InstName Rbias
SYMATTR Value 47k
TEXT 584 -568 Left 2 !.lib lm13700.sub
TEXT 584 -728 Left 2 !.op\n.tran 200u 310m\n*.AC  DEC  20 20 20k\n.IC V(OUT)=2.5\n*.step temp 20 25 5
TEXT -384 -648 Left 2 ;VCO : fOSC = Iabc / (4 Rosc Cosc Iabc1) = Iabc * Rbias1 / (4 Rosc Cosc)  \nTosc = 4 Rosc Cosc Iabc/Iabc1\nA courant égaux, Tosc = 2ms
