Version 4
SHEET 1 1716 680
WIRE 848 -336 848 -368
WIRE 960 -336 960 -368
WIRE 144 -256 48 -256
WIRE 256 -256 144 -256
WIRE 848 -224 848 -256
WIRE 960 -224 960 -256
WIRE 48 -160 48 -256
WIRE 256 -112 256 -256
WIRE 48 -32 48 -80
WIRE 768 -32 768 -96
WIRE 256 48 256 -32
WIRE 768 48 768 -32
WIRE 64 80 -16 80
WIRE 256 112 256 48
WIRE 304 112 288 112
WIRE 336 112 304 112
WIRE -16 128 -16 80
WIRE 288 144 288 112
WIRE 336 144 336 112
WIRE 400 208 400 176
WIRE 576 208 400 208
WIRE 400 224 400 208
WIRE 304 240 304 112
WIRE 768 240 768 128
WIRE 832 240 800 240
WIRE 848 240 832 240
WIRE 800 272 800 240
WIRE 848 272 848 240
WIRE 912 336 912 304
WIRE 1040 336 912 336
WIRE 400 352 400 304
WIRE 912 352 912 336
WIRE 304 384 304 304
WIRE 64 464 64 208
WIRE 576 464 576 336
WIRE 576 464 64 464
WIRE 672 464 576 464
WIRE 832 464 832 240
WIRE 832 464 672 464
WIRE 912 480 912 432
WIRE 672 496 672 464
WIRE 672 624 672 576
FLAG 848 -224 0
FLAG 848 -368 VCC
FLAG 160 208 VSS
FLAG 160 80 VCC
FLAG 960 -224 0
FLAG 960 -368 VSS
FLAG 400 352 VSS
FLAG 304 112 OUT
FLAG 400 208 BUF
FLAG 256 48 Vabc
FLAG 48 -32 0
FLAG 304 384 0
FLAG 144 -256 Vcontrol
FLAG 672 336 VSS
FLAG 672 208 VCC
FLAG 912 480 VSS
FLAG -16 128 0
FLAG 768 -32 VCC
FLAG 672 624 0
SYMBOL LM13700 128 64 R0
SYMATTR InstName U1
SYMBOL voltage 848 -352 R0
WINDOW 123 0 0 Left 2
WINDOW 39 0 0 Left 2
SYMATTR InstName Vvcc
SYMATTR Value 15
SYMBOL res 384 208 R0
SYMATTR InstName Rbuf
SYMATTR Value 10k
SYMBOL voltage 960 -352 R0
WINDOW 123 0 0 Left 2
WINDOW 39 0 0 Left 2
SYMATTR InstName Vvss
SYMATTR Value -15
SYMBOL res 240 -128 R0
SYMATTR InstName Rabc
SYMATTR Value 24k
SYMBOL voltage 48 -176 R0
WINDOW 123 24 124 Left 2
WINDOW 39 0 0 Left 2
SYMATTR InstName Vbias
SYMATTR Value -5
SYMBOL cap 288 240 R0
SYMATTR InstName Cout
SYMATTR Value 100n
SYMBOL LM13700 640 192 R0
SYMATTR InstName U2
SYMBOL res 896 336 R0
SYMATTR InstName Rbuf1
SYMATTR Value 10k
SYMBOL res 752 32 R0
SYMATTR InstName Rabc1
SYMATTR Value 51k
SYMBOL res 656 480 R0
SYMATTR InstName RA
SYMATTR Value 5.1k
TEXT 488 -152 Left 2 !.lib lm13700.sub
TEXT 480 -248 Left 2 !.tran 20u 20m\n*.AC  DEC  20 20 20k\n.IC V(OUT)=2.5
TEXT 80 -352 Left 2 ;VCO : fOSC = Iabc1 / (4 R C Iabc)\nTosc = 4 R C Iabc/Iabc1\nA courant égaux, Tosc = 2ms
